Version 4
SHEET 1 1252 1000
WIRE -80 -160 -144 -160
WIRE 48 -160 0 -160
WIRE 176 -160 96 -160
WIRE -144 -112 -144 -160
WIRE 48 -112 48 -160
WIRE 96 -112 96 -160
WIRE -144 -16 -144 -32
WIRE -80 -16 -144 -16
WIRE 48 -16 48 -32
WIRE 48 -16 -16 -16
WIRE 96 0 96 -32
WIRE -144 16 -144 -16
WIRE 16 80 -48 80
WIRE 176 80 176 -160
WIRE 176 80 16 80
WIRE 256 80 176 80
WIRE 336 80 256 80
WIRE 16 176 -48 176
WIRE 336 176 256 176
WIRE 16 240 16 176
WIRE 208 240 208 160
WIRE 208 240 16 240
WIRE 64 272 64 160
WIRE 256 272 256 176
WIRE 256 272 64 272
WIRE 16 288 16 240
WIRE 208 352 208 240
WIRE 64 368 64 272
WIRE 128 384 16 384
WIRE 256 384 256 368
WIRE 256 384 128 384
WIRE 128 416 128 384
WIRE -96 480 -96 160
WIRE -96 480 -144 480
WIRE 16 480 -96 480
WIRE 384 480 384 160
WIRE 496 480 384 480
WIRE -32 624 -32 560
WIRE 448 624 448 560
WIRE 448 624 -32 624
WIRE 496 624 496 576
WIRE 496 624 448 624
WIRE -192 672 -192 560
WIRE 16 672 16 576
WIRE 16 672 -192 672
WIRE 336 672 336 560
WIRE 336 672 16 672
WIRE -144 720 -144 576
WIRE 32 720 -144 720
WIRE -192 752 -192 672
WIRE -176 752 -192 752
WIRE -176 768 -176 752
WIRE 32 768 32 720
WIRE 384 768 384 576
WIRE 384 768 256 768
WIRE 496 768 496 624
WIRE -176 864 -176 848
WIRE 32 864 32 848
WIRE 256 864 256 848
WIRE 496 864 496 848
FLAG 128 416 0
FLAG 96 0 0
FLAG 400 608 A_Bar
FLAG 48 592 B
FLAG 576 608 B_Bar
FLAG 432 544 B_Bar
FLAG -64 592 B_Bar
FLAG -176 864 0
FLAG 496 864 0
FLAG -128 592 A
FLAG 304 544 B
FLAG 32 864 0
FLAG 256 864 0
FLAG -240 560 B
FLAG -144 16 0
SYMBOL nmos -96 80 R0
WINDOW 0 -50 29 Left 0
WINDOW 3 -98 70 Left 0
SYMATTR InstName M1
SYMBOL nmos -32 480 R0
WINDOW 0 56 32 Left 0
WINDOW 3 56 72 Left 0
SYMATTR InstName M2
SYMBOL nmos -192 480 R0
WINDOW 0 56 32 Left 0
WINDOW 3 56 72 Left 0
SYMATTR InstName M3
SYMBOL nmos 208 272 R0
WINDOW 0 56 32 Left 0
WINDOW 3 56 56 Left 0
SYMATTR InstName M4
SYMBOL nmos 336 480 R0
WINDOW 0 -64 11 Left 0
WINDOW 3 -96 52 Left 0
SYMATTR InstName M5
SYMBOL nmos 64 288 M0
WINDOW 0 56 32 Left 0
WINDOW 3 56 72 Left 0
SYMATTR InstName M6
SYMBOL nmos 448 480 R0
WINDOW 0 89 8 Left 0
WINDOW 3 130 44 Left 0
SYMATTR InstName M7
SYMBOL nmos 384 80 M0
WINDOW 0 -47 19 Left 0
WINDOW 3 -97 58 Left 0
SYMATTR InstName M8
SYMBOL pmos 208 80 R0
WINDOW 0 2 -19 Left 0
WINDOW 3 42 -21 Left 0
SYMATTR InstName M9
SYMBOL pmos 64 80 M0
WINDOW 0 -5 -19 Left 0
WINDOW 3 -65 0 Left 0
SYMATTR InstName M10
SYMBOL voltage -144 -128 R0
WINDOW 0 24 16 Left 0
WINDOW 3 -142 65 Left 0
WINDOW 123 0 0 Left 0
WINDOW 39 0 0 Left 0
SYMATTR InstName V1
SYMATTR Value SINE(0 3 50000000)
SYMBOL voltage -176 752 R0
WINDOW 123 0 0 Left 0
WINDOW 39 0 0 Left 0
WINDOW 3 -406 132 Left 2
SYMATTR Value PULSE(0 2 0 10n 10n 0.2u 0.4u 10)
SYMATTR InstName B
SYMBOL voltage 496 752 R0
WINDOW 123 0 0 Left 0
WINDOW 39 0 0 Left 0
WINDOW 3 65 48 Left 2
SYMATTR Value PULSE(0 2 0.2u 10n 10n 0.2u 0.4u 10)
SYMATTR InstName Bbar
SYMBOL voltage 32 752 R0
WINDOW 3 -226 159 Left 2
WINDOW 123 0 0 Left 0
WINDOW 39 0 0 Left 0
SYMATTR Value PULSE(0 2 0 10n 10n 0.3u 0.4u 10)
SYMATTR InstName A
SYMBOL voltage 256 752 R0
WINDOW 3 -91 220 Left 2
WINDOW 123 0 0 Left 0
WINDOW 39 0 0 Left 0
SYMATTR Value PULSE(0 2 0.3u 10n 10n 0.1u 0.4u 10)
SYMATTR InstName Abar
SYMBOL res 16 -176 R90
WINDOW 0 0 56 VBottom 2
WINDOW 3 32 56 VTop 2
SYMATTR InstName R1
SYMATTR Value 70
SYMBOL ind2 32 -128 R0
WINDOW 0 -32 27 Left 2
WINDOW 3 -47 70 Left 2
SYMATTR InstName L1
SYMATTR Value 36µ
SYMBOL ind2 112 -128 M0
WINDOW 0 -38 38 Left 2
WINDOW 3 -48 74 Left 2
SYMATTR InstName L2
SYMATTR Value 37µ
SYMBOL cap -16 -32 R90
WINDOW 0 0 32 VBottom 2
WINDOW 3 32 32 VTop 2
SYMATTR InstName C1
SYMATTR Value 1µ
TEXT -352 936 Left 2 !.tran 20u
TEXT 16 -192 Left 2 !K L1 L2 1
